
Circuit: grupo 28

Doing analysis at TEMP = 27.000000 and TNOM = 27.000000


No. of Data Rows : 1
********************************************
RESULTADOS OBTIDOS NGSPICE GRUPO 28
********************************************
op_TAB
@gb[i] = -1.99401e-03
@id[current] = 1.041275e-03
@r1[i] = -1.90662e-03
@r2[i] = -1.99401e-03
@r3[i] = 8.738847e-05
@r4[i] = -8.14991e-04
@r5[i] = -3.03528e-03
@r6[i] = -1.09163e-03
@r7[i] = -1.09163e-03
v(1) = -1.98500e+00
v(2) = -6.17133e+00
v(3) = -5.06872e+00
v(4) = -1.71138e+00
v(5) = 7.745306e+00
v(6) = -2.83307e+00
v(7) = -1.71137e+00
v(8) = -2.83307e+00
hc#branch = 2.132903e-03
va#branch = -1.90662e-03
vb#branch = -1.09163e-03
op_END
ngspice-31 done
