
Circuit: 

Doing analysis at TEMP = 27.000000 and TNOM = 27.000000


No. of Data Rows : 1
************************************************************
RESULTS NGSPICE SIMULATION GROUP 28 LABORATORY 1 QUESTION 2
************************************************************
op2_TAB
@c1[i] = 0.000000e+00
@gb[i] = 0.000000e+00
@r1[i] = 0.000000e+00
@r2[i] = 0.000000e+00
@r3[i] = 0.000000e+00
@r4[i] = 0.000000e+00
@r5[i] = 0.000000e+00
@r6[i] = 0.000000e+00
@r7[i] = 0.000000e+00
v(1) = 0.000000e+00
v(2) = 0.000000e+00
v(3) = 0.000000e+00
v(5) = 0.000000e+00
v(6) = 0.000000e+00
v(7) = 0.000000e+00
v(8) = 0.000000e+00
v(9) = 0.000000e+00
hc#branch = 0.000000e+00
vaux#branch = 0.000000e+00
vs#branch = 0.000000e+00
Error(parse.c--checkvalid): vx#branch: no such vector.
op2_END
ngspice-31 done
