
Circuit: 

Doing analysis at TEMP = 27.000000 and TNOM = 27.000000


No. of Data Rows : 1
************************************************************
RESULTS NGSPICE SIMULATION GROUP 28 LABORATORY 1 QUESTION 1
************************************************************
op2_TAB
@gb[i] = -2.06971e-18
@r1[i] = -1.97900e-18
@r2[i] = -2.06971e-18
@r3[i] = 9.070621e-20
@r4[i] = 4.312100e-19
@r5[i] = -2.74542e-03
@r6[i] = -4.33681e-19
@r7[i] = -8.64373e-19
v(1) = 0.000000e+00
v(2) = -2.06037e-15
v(3) = -6.40562e-15
v(5) = -1.77636e-15
v(6) = 8.553593e+00
v(7) = 8.881757e-16
v(8) = 1.776357e-15
v(9) = 8.881757e-16
hc#branch = 2.745419e-03
vaux#branch = -4.33681e-19
vs#branch = -1.97900e-18
vx#branch = -2.74542e-03
op2_END
ngspice-31 done
