
Circuit: grupo 28

Doing analysis at TEMP = 27.000000 and TNOM = 27.000000


No. of Data Rows : 1
********************************************
RESULTS NGSPICE SIMULATION GROUP 28 LABORATORY 1
********************************************
op_TAB
@gb[i] = -2.26065e-04
@id[current] = 1.041275e-03
@r1[i] = -2.16157e-04
@r2[i] = -2.26065e-04
@r3[i] = 9.907405e-06
@r4[i] = -1.18333e-03
@r5[i] = -1.26734e-03
@r6[i] = 9.671728e-04
@r7[i] = 9.671728e-04
v(1) = -2.25044e-01
v(2) = -6.99656e-01
v(3) = -5.06872e+00
v(4) = -1.94023e-01
v(5) = 3.754486e+00
v(6) = -7.04948e+00
v(7) = -8.04329e+00
v(8) = -7.04948e+00
hc#branch = 7.410242e-05
va#branch = -2.16157e-04
vaux#branch = 9.671728e-04
op_END
ngspice-31 done
