
Circuit: * ngspice simulation script lab2 question 3

Doing analysis at TEMP = 27.000000 and TNOM = 27.000000


No. of Data Rows : 1
********************************************
Transient analysis
********************************************
Doing analysis at TEMP = 27.000000 and TNOM = 27.000000


Initial Transient Solution
--------------------------

Node                                   Voltage
----                                   -------
1                                            0
2                                      5.65407
3                                      17.5784
5                                      4.87469
6                                      5.57902
9                                     -1.98076
7                                     -1.98076
8                                     -2.97458
hd#branch                         -0.000705719
vaux#branch                        0.000967173
vs#branch                            0.0054308


No. of Data Rows : 2008

The file "sim3.ps" may be printed on a postscript printer.
sim3_FIG
ngspice-31 done
