
Circuit: 

Doing analysis at TEMP = 27.000000 and TNOM = 27.000000


No. of Data Rows : 1
************************************************************
RESULTS NGSPICE SIMULATION GROUP 28 LABORATORY 1 QUESTION 1
************************************************************
op_TAB
@c1[i] = 0.000000e+00
@gb[i] = -2.26065e-04
@r1[i] = 2.161572e-04
@r2[i] = -2.26065e-04
@r3[i] = -9.90741e-06
@r4[i] = 1.183330e-03
@r5[i] = -2.26065e-04
@r6[i] = -9.67173e-04
@r7[i] = 9.671730e-04
v(1) = 5.068716e+00
v(2) = 4.843672e+00
v(3) = 4.369060e+00
v(5) = 4.874693e+00
v(6) = 5.579017e+00
v(7) = -1.98076e+00
v(8) = -2.97458e+00
v(9) = -1.98076e+00
hd#branch = -9.67173e-04
vaux#branch = 9.671730e-04
vs#branch = -2.16157e-04
op_END
Doing analysis at TEMP = 27.000000 and TNOM = 27.000000


No. of Data Rows : 1

No. of Data Rows : 1
	Node                                  Voltage
	----                                  -------
	----	-------
	V(8)                             -2.97458e+00
	V(7)                             -1.98076e+00
	V(9)                             -1.98076e+00
	V(6)                             5.579017e+00
	V(5)                             4.874693e+00
	V(3)                             4.369060e+00
	V(2)                             4.843672e+00
	V(1)                             5.068716e+00

	Source	Current
	------	-------

	@c1[i]                           0.000000e+00
	@gb[i]                           -2.26065e-04
	@r7[i]                           9.671730e-04
	@r6[i]                           -9.67173e-04
	@r5[i]                           -2.26065e-04
	@r4[i]                           1.183330e-03
	@r3[i]                           -9.90741e-06
	@r2[i]                           -2.26065e-04
	@r1[i]                           2.161572e-04
	vs#branch                        -2.16157e-04
	vaux#branch                      9.671730e-04
	hd#branch                        -9.67173e-04

 Capacitor models (Fixed capacitor)
      model                     C

        cap                     0
         cj                     0
       cjsw                     0
       defw                 1e-05
       defl                     0
     narrow                     0
      short                     0
        del                     0
        tc1                     0
        tc2                     0
         di                     0
      thick                     0
     bv_max                 1e+99

 Resistor models (Simple linear resistor)
      model                     R

        rsh                     0
     narrow                     0
      short                     0
        tc1                     0
        tc2                     0
        tce                     0
       defw                 1e-05
          l                 1e-05
         kf                     0
         af                     0
          r                     0
     bv_max                 1e+99
         lf                     1
         wf                     1
         ef                     1

 Capacitor: Fixed capacitor
     device                    c1
      model                     C
capacitance           1.04128e-06
      dtemp                     0
     bv_max                 1e+99
          i                     0
          p                     0

 CCVS: Linear current controlled current source
     device                    hd
          i          -0.000967173
          v               7.84927
          p            -0.0075916

 Resistor: Simple linear resistor
     device                    r7                    r6                    r5
      model                     R                     R                     R
 resistance               1027.54               2047.99               3115.59
         ac               1027.54               2047.99               3115.59
      dtemp                     0                     0                     0
     bv_max                 1e+99                 1e+99                 1e+99
      noisy                     1                     1                     1
          i           0.000967173          -0.000967173          -0.000226065
          p           0.000961189            0.00191574           0.000159223

 Resistor: Simple linear resistor
     device                    r4                    r3                    r2
      model                     R                     R                     R
 resistance               4119.47               3131.09               2099.45
         ac               4119.47               3131.09               2099.45
      dtemp                     0                     0                     0
     bv_max                 1e+99                 1e+99                 1e+99
      noisy                     1                     1                     1
          i            0.00118333          -9.90741e-06          -0.000226065
          p            0.00576837           3.07338e-07           0.000107293

 Resistor: Simple linear resistor
     device                    r1
      model                     R
 resistance               1041.11
         ac               1041.11
      dtemp                     0
     bv_max                 1e+99
      noisy                     1
          i           0.000216157
          p           4.86449e-05

 VCCS: Voltage controlled current source
     device                    gb
          m                     0
          i          -0.000226065
          v               1.20996
          p          -0.000273528

 Vsource: Independent voltage source
     device                  vaux                    vs
         dc                     0               5.06872
      acmag                     0                     0
      pulse         -         -
        sin         -         -
        exp         -         -
        pwl         -         -
       sffm         -         -
         am         -         -
    trnoise         -         -
   trrandom         -         -
          i           0.000967173          -0.000216157
          p                    -0            0.00109564


Total analysis time (seconds) = 0.001

Total elapsed time (seconds) = 0.006 

Total DRAM available = 3935.898 MB.
DRAM currently available = 1746.781 MB.
Total ngspice program size =   22.113 MB.
Resident set size =    9.652 MB.
Shared ngspice pages =    7.754 MB.
Text (code) pages =    5.070 MB.
Stack = 0 bytes.
Library pages =    2.371 MB.

