
Circuit: * ngspice simulation script lab2 question 3

Doing analysis at TEMP = 27.000000 and TNOM = 27.000000


No. of Data Rows : 1
********************************************
"TRANSIENT ANALYSIS"- FORCED SOLUTION
********************************************
Doing analysis at TEMP = 27.000000 and TNOM = 27.000000


Initial Transient Solution
--------------------------

Node                                   Voltage
----                                   -------
2                                      5.65408
1                                            0
3                                      17.5784
5                                       4.8747
6                                      5.57902
9                                     -1.98077
7                                     -1.98077
8                                     -2.97458
hc#branch                         -0.000705719
vaux#branch                        0.000967174
vs#branch                           0.00543081


No. of Data Rows : 2008

The file "sim4.ps" may be printed on a postscript printer.
sim4_FIG
********************************************
"FREQUENCY ANALISIS"- FORCED SOLUTION
********************************************
Doing analysis at TEMP = 27.000000 and TNOM = 27.000000


No. of Data Rows : 901

The file "sim5_db.ps" may be printed on a postscript printer.
sim5_db_FIG

The file "sim5_ph.ps" may be printed on a postscript printer.
ngspice-31 done
