
Circuit: 

Doing analysis at TEMP = 27.000000 and TNOM = 27.000000


No. of Data Rows : 1
************************************************************
RESULTS NGSPICE SIMULATION GROUP 28 LABORATORY 1 QUESTION 1
************************************************************
op_TAB
@c1[i] = 0.000000e+00
@gb[i] = -2.26065e-04
@r1[i] = 2.161572e-04
@r2[i] = -2.26065e-04
@r3[i] = -9.90741e-06
@r4[i] = 1.183330e-03
@r5[i] = -2.26065e-04
@r6[i] = -9.67173e-04
@r7[i] = 9.671730e-04
v(1) = 5.068716e+00
v(2) = 4.843672e+00
v(3) = 4.369060e+00
v(5) = 4.874693e+00
v(6) = 5.579017e+00
v(7) = -1.98076e+00
v(8) = -2.97458e+00
v(9) = -1.98076e+00
hd#branch = -9.67173e-04
vaux#branch = 9.671730e-04
vs#branch = -2.16157e-04
op_END
ngspice-31 done
