
Circuit: *

Doing analysis at TEMP = 27.000000 and TNOM = 27.000000


No. of Data Rows : 1
**************************
Operating point
**************************
op2_TAB
@gb[i] = -4.13942e-18
@r1[i] = -3.95801e-18
@r2[i] = -4.13942e-18
@r3[i] = 1.814124e-19
@r4[i] = 8.624201e-19
@r5[i] = -2.74542e-03
@r6[i] = -8.67362e-19
@r7[i] = -1.72875e-18
v(1) = 0.000000e+00
v(2) = -4.12073e-15
v(3) = -1.28112e-14
v(5) = -3.55271e-15
v(6) = 8.553593e+00
v(7) = 1.776352e-15
v(8) = 3.552714e-15
v(9) = 1.776352e-15
hd#branch = 2.745419e-03
vaux#branch = -8.67362e-19
vs#branch = -3.95801e-18
vx#branch = -2.74542e-03
op2_END
ngspice-31 done
