
Circuit: *

Doing analysis at TEMP = 27.000000 and TNOM = 27.000000


No. of Data Rows : 1
**************************
Operating point
**************************
op2_TAB
@gb[i] = -4.13942e-18
@r1[i] = -3.95801e-18
@r2[i] = -4.13942e-18
@r3[i] = 1.814124e-19
@r4[i] = 8.624201e-19
@r5[i] = -2.74542e-03
@r6[i] = -8.67362e-19
@r7[i] = -1.72875e-18
v(1) = 0.000000e+00
v(2) = -4.12073e-15
v(3) = -1.28112e-14
v(5) = -3.55271e-15
v(6) = 8.553593e+00
v(7) = 1.776352e-15
v(8) = 3.552714e-15
v(9) = 1.776352e-15
hd#branch = 2.745419e-03
vaux#branch = -8.67362e-19
vs#branch = -3.95801e-18
vx#branch = -2.74542e-03
vx#branch = -2.74542e-03
(v(6)-v(8))/vx#branch = -3.11559e+03
op2_END
Doing analysis at TEMP = 27.000000 and TNOM = 27.000000


No. of Data Rows : 1

No. of Data Rows : 1
	Node                                  Voltage
	----                                  -------
	----	-------
	V(8)                             3.552714e-15
	V(7)                             1.776352e-15
	V(9)                             1.776352e-15
	V(6)                             8.553593e+00
	V(5)                             -3.55271e-15
	V(3)                             -1.28112e-14
	V(2)                             -4.12073e-15
	V(1)                             0.000000e+00

	Source	Current
	------	-------

	@gb[i]                           -4.13942e-18
	@r7[i]                           -1.72875e-18
	@r6[i]                           -8.67362e-19
	@r5[i]                           -2.74542e-03
	@r4[i]                           8.624201e-19
	@r3[i]                           1.814124e-19
	@r2[i]                           -4.13942e-18
	@r1[i]                           -3.95801e-18
	vs#branch                        -3.95801e-18
	vx#branch                        -2.74542e-03
	vaux#branch                      -8.67362e-19
	hd#branch                        2.745419e-03

 Resistor models (Simple linear resistor)
      model                     R

        rsh                     0
     narrow                     0
      short                     0
        tc1                     0
        tc2                     0
        tce                     0
       defw                 1e-05
          l                 1e-05
         kf                     0
         af                     0
          r                     0
     bv_max                 1e+99
         lf                     1
         wf                     1
         ef                     1

 CCVS: Linear current controlled current source
     device                    hd
          i            0.00274542
          v          -7.10543e-15
          p          -1.95074e-17

 Resistor: Simple linear resistor
     device                    r7                    r6                    r5
      model                     R                     R                     R
 resistance               1027.54               2047.99               3115.59
         ac               1027.54               2047.99               3115.59
      dtemp                     0                     0                     0
     bv_max                 1e+99                 1e+99                 1e+99
      noisy                     1                     1                     1
          i          -1.72875e-18          -8.67362e-19           -0.00274542
          p           3.07088e-33           1.54074e-33             0.0234832

 Resistor: Simple linear resistor
     device                    r4                    r3                    r2
      model                     R                     R                     R
 resistance               4119.47               3131.09               2099.45
         ac               4119.47               3131.09               2099.45
      dtemp                     0                     0                     0
     bv_max                 1e+99                 1e+99                 1e+99
      noisy                     1                     1                     1
          i            8.6242e-19           1.81412e-19          -4.13942e-18
          p           3.06393e-33           1.03046e-34           3.59737e-32

 Resistor: Simple linear resistor
     device                    r1
      model                     R
 resistance               1041.11
         ac               1041.11
      dtemp                     0
     bv_max                 1e+99
      noisy                     1
          i          -3.95801e-18
          p           1.63099e-32

 VCCS: Voltage controlled current source
     device                    gb
          m                     0
          i          -4.13942e-18
          v               8.55359
          p          -3.54069e-17

 Vsource: Independent voltage source
     device                    vx                  vaux                    vs
         dc               8.55359                     0                     0
      acmag                     0                     0                     0
      pulse         -         -         -
        sin         -         -         -
        exp         -         -         -
        pwl         -         -         -
       sffm         -         -         -
         am         -         -         -
    trnoise         -         -         -
   trrandom         -         -         -
          i           -0.00274542          -8.67362e-19          -3.95801e-18
          p             0.0234832                     0                     0


Total analysis time (seconds) = 0.013

Total elapsed time (seconds) = 0.031 

Total DRAM available = 3935.898 MB.
DRAM currently available = 1746.781 MB.
Total ngspice program size =   22.113 MB.
Resident set size =    9.832 MB.
Shared ngspice pages =    7.930 MB.
Text (code) pages =    5.070 MB.
Stack = 0 bytes.
Library pages =    2.371 MB.

