
Circuit: .options savecurrents

Doing analysis at TEMP = 27.000000 and TNOM = 27.000000

Warning: vl: no DC value, transient time 0 value used

No. of Data Rows : 71
op_ZO_TAB
Zo = 22.5223 + 0.359649 j
Zo(arg) = 22.5252
op_ZO_END
ngspice-31 done
