
Circuit: 

false = 0.000000e+00
true = 1.000000e+00
boltz = 1.380649e-23
c = 2.997925e+08
e = 2.718282e+00
echarge = 1.602177e-19
i = 0.000000e+00,1.000000e+00
kelvin = -2.73150e+02
no = 0.000000e+00
pi = 3.141593e+00
planck = 6.626070e-34
yes = 1.000000e+00
Doing analysis at TEMP = 27.000000 and TNOM = 27.000000


No. of Data Rows : 1
**************
NPN_TAB
Vce = 1.57786
Vbe = 0.682323
Vce greater than Vbe = Correct F.A.R
NPN_END
**************
PNP_TAB
Vec = 2.72908
Veb = 0.781397
Vec greater than Veb = Correct F.A.R
PNP_END
op_TAB
@cb[i] = 0.000000e+00
@ci[i] = 0.000000e+00
@cout[i] = 0.000000e+00
@q1[ib] = 2.132105e-05
@q1[ic] = 3.676881e-03
@q1[ie] = -3.69820e-03
@q1[is] = 1.945288e-12
@q2[ib] = 3.261073e-04
@q2[ic] = 4.602851e-02
@q2[ie] = -4.63546e-02
@q2[is] = -1.94801e-12
@r1[i] = 5.473928e-04
@r2[i] = 5.260718e-04
@rc[i] = 3.350773e-03
@re[i] = 3.698202e-03
@rin[i] = 0.000000e+00
@rl[i] = 0.000000e+00
@rout[i] = -4.63546e-02
base = 1.052144e+00
coll = 1.947680e+00
emit = 3.698202e-01
emit2 = 2.729077e+00
in = 0.000000e+00
in2 = 0.000000e+00
out = 0.000000e+00
vbe = 6.823234e-01
vcc = 1.200000e+01
vcc#branch = -5.02528e-02
vce = 1.577860e+00
veb = 7.813967e-01
vec = 2.729077e+00
vin#branch = 0.000000e+00
op_END
Doing analysis at TEMP = 27.000000 and TNOM = 27.000000


No. of Data Rows : 71

The file "vo1f.ps" may be printed on a postscript printer.

The file "vo2f.ps" may be printed on a postscript printer.
max                 =  3.638695e+01 at=  7.943282e+03
lower               =  5.300313e+01
upper               =  1.278734e+06
Zin_TAB
Zin = -738.418 + 125.718 j
Zin_END
results_TAB
V Gain=36.3869
Bandwidth=1.27868E+06
Lower Cut Off Freq= 53.0031
results_END
**************
cost_TAB
Cost = 1225.6
merit = 716.238
cost_END
**************
Doing analysis at TEMP = 27.000000 and TNOM = 27.000000


No. of Data Rows : 1

No. of Data Rows : 1
	Node                                  Voltage
	----                                  -------
	----	-------
	out                              0.000000e+00
	emit2                            2.729077e+00
	emit                             3.698202e-01
	coll                             1.947680e+00
	base                             1.052144e+00
	in2                              0.000000e+00
	in                               0.000000e+00
	vcc                              1.200000e+01

	Source	Current
	------	-------

	@rl[i]                           0.000000e+00
	@cout[i]                         0.000000e+00
	@rout[i]                         -4.63546e-02
	@q2[is]                          -1.94801e-12
	@q2[ib]                          3.261073e-04
	@q2[ie]                          -4.63546e-02
	@q2[ic]                          4.602851e-02
	@cb[i]                           0.000000e+00
	@re[i]                           3.698202e-03
	@rc[i]                           3.350773e-03
	@q1[is]                          1.945288e-12
	@q1[ib]                          2.132105e-05
	@q1[ie]                          -3.69820e-03
	@q1[ic]                          3.676881e-03
	@r2[i]                           5.260718e-04
	@r1[i]                           5.473928e-04
	@ci[i]                           0.000000e+00
	@rin[i]                          0.000000e+00
	vcc#branch                       -5.02528e-02
	vin#branch                       0.000000e+00

 BJT models (Bipolar Junction Transistor)
      model                bc557a                bc547a

       type                   pnp                   npn
       tnom                    27                    27
         is             2.059e-14             1.533e-14
         bf                 227.3                 178.7
         nf                 1.003                 1.002
        vaf                  37.2                  69.7
        ikf               0.08719                0.1216
        ise             2.971e-15             7.932e-16
         ne                 1.316                 1.436
         br                  7.69                 8.628
         nr                 1.007                 1.004
        var                 11.42                  44.7
        ikr               0.07646                0.1121
        isc             1.339e-14             8.305e-14
         nc                  1.15                 1.207
         rb                     1                     1
        irb                 1e-06                 1e-06
        rbm                     1                     1
         re                 0.688                0.6395
         rc                0.6437                0.6508
        cje               1.4e-11              1.61e-11
        vje                0.5912                0.4209
        mje                0.3572                0.3071
         tf             7.046e-10             4.995e-10
        xtf                 4.217                   139
        vtf                 5.367                 3.523
        itf                0.1947                0.7021
        ptf                     0                     0
        cjc             1.113e-11             4.388e-12
        vjc                   0.1                   0.2
        mjc                0.3414                0.2793
       xcjc                0.6288                0.6193
         tr                 0.001                 0.001
        cjs                     0                     0
        vjs                  0.75                  0.75
        mjs                     0                     0
        xtb                   1.5                   1.5
         eg                  1.11                  1.11
        xti                     3                     3
         fc                0.7947                0.7762
         kf                     0                     0
         af                     0                     0
        iss                     0                     0
         ns                     1                     1
       tlev                     0                     0
      tlevc                     0                     0
       tbf1                     0                     0
       tbf2                     0                     0
       tbr1                     0                     0
       tbr2                     0                     0
      tikf1                     0                     0
      tikf2                     0                     0
      tikr1                     0                     0
      tikr2                     0                     0
      tirb1                     0                     0
      tirb2                     0                     0
       tnc1                     0                     0
       tnc2                     0                     0
       tne1                     0                     0
       tne2                     0                     0
       tnf1                     0                     0
       tnf2                     0                     0
       tnr1                     0                     0
       tnr2                     0                     0
       trb1                     0                     0
       trb2                     0                     0
       trc1                     0                     0
       trc2                     0                     0
       tre1                     0                     0
       tre2                     0                     0
       trm1                     0                     0
       trm2                     0                     0
      tvaf1                     0                     0
      tvaf2                     0                     0
      tvar1                     0                     0
      tvar2                     0                     0
        ctc                     0                     0
        cte                     0                     0
        cts                     0                     0
       tvjc                     0                     0
       tvje                     0                     0
       tvjs                     0                     0
      titf1                     0                     0
      titf2                     0                     0
       ttf1                     0                     0
       ttf2                     0                     0
       ttr1                     0                     0
       ttr2                     0                     0
      tmje1                     0                     0
      tmje2                     0                     0
      tmjc1                     0                     0
      tmjc2                     0                     0
      tmjs1                     0                     0
      tmjs2                     0                     0
       tns1                     0                     0
       tns2                     0                     0
        nkf                   0.5                   0.5
       tis1                     0                     0
       tis2                     0                     0
      tise1                     0                     0
      tise2                     0                     0
      tisc1                     0                     0
      tisc2                     0                     0
    vbe_max                 1e+99                 1e+99
    vbc_max                 1e+99                 1e+99
    vce_max                 1e+99                 1e+99

 Capacitor models (Fixed capacitor)
      model                     C

        cap                     0
         cj                     0
       cjsw                     0
       defw                 1e-05
       defl                     0
     narrow                     0
      short                     0
        del                     0
        tc1                     0
        tc2                     0
         di                     0
      thick                     0
     bv_max                 1e+99

 Resistor models (Simple linear resistor)
      model                     R

        rsh                     0
     narrow                     0
      short                     0
        tc1                     0
        tc2                     0
        tce                     0
       defw                 1e-05
          l                 1e-05
         kf                     0
         af                     0
          r                     0
     bv_max                 1e+99
         lf                     1
         wf                     1
         ef                     1

 BJT: Bipolar Junction Transistor
     device                    q2                    q1
      model                bc557a                bc547a
         ic             0.0460285            0.00367688
         ib           0.000326107           2.13211e-05
         ie            -0.0463546            -0.0036982
        vbe              0.749179              0.679937
        vbc              -1.91838             -0.893165
         gm               1.31017              0.137684
        gpi             0.0124718           0.000821853
        gmu                 1e-12           1.00002e-12
         gx                     1                     1
         go            0.00125494           5.28797e-05
        cpi           1.62442e-09           1.24366e-10
        cmu           2.50888e-12           1.69099e-12
        cbx           1.48115e-12            1.0395e-12
       csub                     0                     0

 Capacitor: Fixed capacitor
     device                  cout                    cb                    ci
      model                     C                     C                     C
capacitance                0.0002                0.0005                0.0005
      dtemp                     0                     0                     0
     bv_max                 1e+99                 1e+99                 1e+99
          i                     0                     0                     0
          p                     0                     0                    -0

 Resistor: Simple linear resistor
     device                    rl                  rout                    re
      model                     R                     R                     R
 resistance                     8                   200                   100
         ac                     8                   200                   100
      dtemp                     0                     0                     0
     bv_max                 1e+99                 1e+99                 1e+99
      noisy                     1                     1                     1
          i                     0            -0.0463546             0.0036982
          p                     0               0.42975            0.00136767

 Resistor: Simple linear resistor
     device                    rc                    r2                    r1
      model                     R                     R                     R
 resistance                  3000                  2000                 20000
         ac                  3000                  2000                 20000
      dtemp                     0                     0                     0
     bv_max                 1e+99                 1e+99                 1e+99
      noisy                     1                     1                     1
          i            0.00335077           0.000526072           0.000547393
          p              0.033683           0.000553503            0.00599278

 Resistor: Simple linear resistor
     device                   rin
      model                     R
 resistance                   100
         ac                   100
      dtemp                     0
     bv_max                 1e+99
      noisy                     1
          i                     0
          p                     0

 Vsource: Independent voltage source
     device                   vin                   vcc
         dc                     0                    12
      acmag                     1                     0
      pulse                     0         -
                             0.01          
                             1000          
        sin                     0         -
                             0.01          
                             1000          
        exp                     0         -
                             0.01          
                             1000          
        pwl                     0         -
                             0.01          
                             1000          
       sffm                     0         -
                             0.01          
                             1000          
         am                     0         -
                             0.01          
                             1000          
    trnoise                     0         -
                             0.01          
                             1000          
   trrandom                     0         -
                             0.01          
                             1000          
          i                     0            -0.0502528
          p                    -0              0.603033


Total analysis time (seconds) = 0.003

Total elapsed time (seconds) = 0.039 

Total DRAM available = 3935.898 MB.
DRAM currently available =  306.848 MB.
Total ngspice program size =   22.656 MB.
Resident set size =    9.930 MB.
Shared ngspice pages =    7.266 MB.
Text (code) pages =    5.070 MB.
Stack = 0 bytes.
Library pages =    2.914 MB.

